* Deltares, D-Flow FM Version 1.2.38.63242M, Mar 04 2019, 09:09:24
* Source: https://svn.oss.deltares.nl/repos/delft3d/trunk/
* File creation date: 11:37:22, 05-03-2019                                                                                                                                                                                                                     
** DEBUG  :            0  0.1000020      NOD(KMAX)
** DEBUG  :            6  0.7000140      XK (KMAX), YK (KMAX), ZK (KMAX), KC (KMAX), NMK (KMAX), RNOD(KMAX)
